MT3DMS Heading1
MT3DMS Heading2
       268       800         1         1         1         1
UNDFUNDFkg  
 T T T F T F F F F F
 0 0 0 0 0 0 0 0 0 0 0 0 0 0 0 0 0 0 0 0 0 0 0 0 0 0 0 0 0 0 0 0 0 0 0 0 0 0 0 0
 0 0 0 0 0 0 0 0 0 0 0 0 0 0 0 0 0 0 0 0 0 0 0 0 0 0 0 0 0 0 0 0 0 0 0 0 0 0 0 0
 0 0 0 0 0 0 0 0 0 0 0 0 0 0 0 0 0 0 0 0 0 0 0 0 0 0 0 0 0 0 0 0 0 0 0 0 0 0 0 0
 0 0 0 0 0 0 0 0 0 0 0 0 0 0 0 0 0 0 0 0 0 0 0 0 0 0 0 0 0 0 0 0 0 0 0 0 0 0 0 0
 0 0 0 0 0 0 0 0 0 0 0 0 0 0 0 0 0 0 0 0 0 0 0 0 0 0 0 0 0 0 0 0 0 0 0 0 0 0 0 0
 0 0 0 0 0 0 0 0 0 0 0 0 0 0 0 0 0 0 0 0 0 0 0 0 0 0 0 0 0 0 0 0 0 0 0 0 0 0 0 0
 0 0 0 0 0 0 0 0 0 0 0 0 0 0 0 0 0 0 0 0 0 0 0 0 0 0 0 0
       103        1.                             0
5.000000000000E+002 
       103        1.                             0
800*2.500000000000E+002 
       103        1.                             0
 0.00000000000000E+0000 
 0.00000000000000E+0000 
 0.00000000000000E+0000 
 0.00000000000000E+0000 
 0.00000000000000E+0000 
 0.00000000000000E+0000 
 0.00000000000000E+0000 
 0.00000000000000E+0000 
 0.00000000000000E+0000 
 0.00000000000000E+0000 
 0.00000000000000E+0000 
 0.00000000000000E+0000 
 0.00000000000000E+0000 
 0.00000000000000E+0000 
 0.00000000000000E+0000 
 0.00000000000000E+0000 
 0.00000000000000E+0000 
 0.00000000000000E+0000 
 0.00000000000000E+0000 
 0.00000000000000E+0000 
 0.00000000000000E+0000 
 0.00000000000000E+0000 
 0.00000000000000E+0000 
 0.00000000000000E+0000 
 0.00000000000000E+0000 
 0.00000000000000E+0000 
 0.00000000000000E+0000 
 0.00000000000000E+0000 
 0.00000000000000E+0000 
 0.00000000000000E+0000 
 0.00000000000000E+0000 
 0.00000000000000E+0000 
 0.00000000000000E+0000 
 0.00000000000000E+0000 
 0.00000000000000E+0000 
 0.00000000000000E+0000 
 0.00000000000000E+0000 
 0.00000000000000E+0000 
 0.00000000000000E+0000 
 0.00000000000000E+0000 
 0.00000000000000E+0000 
 0.00000000000000E+0000 
 0.00000000000000E+0000 
 0.00000000000000E+0000 
 0.00000000000000E+0000 
 0.00000000000000E+0000 
 0.00000000000000E+0000 
 0.00000000000000E+0000 
 0.00000000000000E+0000 
 0.00000000000000E+0000 
 0.00000000000000E+0000 
 0.00000000000000E+0000 
 0.00000000000000E+0000 
 0.00000000000000E+0000 
 0.00000000000000E+0000 
 0.00000000000000E+0000 
 0.00000000000000E+0000 
 0.00000000000000E+0000 
 0.00000000000000E+0000 
 0.00000000000000E+0000 
 0.00000000000000E+0000 
 0.00000000000000E+0000 
 0.00000000000000E+0000 
 0.00000000000000E+0000 
 0.00000000000000E+0000 
 0.00000000000000E+0000 
 0.00000000000000E+0000 
 0.00000000000000E+0000 
 0.00000000000000E+0000 
 0.00000000000000E+0000 
 0.00000000000000E+0000 
 0.00000000000000E+0000 
 0.00000000000000E+0000 
 0.00000000000000E+0000 
 0.00000000000000E+0000 
 0.00000000000000E+0000 
 0.00000000000000E+0000 
 0.00000000000000E+0000 
 0.00000000000000E+0000 
 0.00000000000000E+0000 
 0.00000000000000E+0000 
 0.00000000000000E+0000 
 0.00000000000000E+0000 
 0.00000000000000E+0000 
 0.00000000000000E+0000 
 0.00000000000000E+0000 
 0.00000000000000E+0000 
 0.00000000000000E+0000 
 0.00000000000000E+0000 
 0.00000000000000E+0000 
 0.00000000000000E+0000 
 0.00000000000000E+0000 
 0.00000000000000E+0000 
 0.00000000000000E+0000 
 0.00000000000000E+0000 
 0.00000000000000E+0000 
 0.00000000000000E+0000 
 0.00000000000000E+0000 
 0.00000000000000E+0000 
 0.00000000000000E+0000 
 0.00000000000000E+0000 
 0.00000000000000E+0000 
 0.00000000000000E+0000 
 0.00000000000000E+0000 
 0.00000000000000E+0000 
 0.00000000000000E+0000 
 0.00000000000000E+0000 
 0.00000000000000E+0000 
 0.00000000000000E+0000 
 0.00000000000000E+0000 
 0.00000000000000E+0000 
 0.00000000000000E+0000 
 0.00000000000000E+0000 
 0.00000000000000E+0000 
 0.00000000000000E+0000 
 0.00000000000000E+0000 
 0.00000000000000E+0000 
 0.00000000000000E+0000 
 0.00000000000000E+0000 
 0.00000000000000E+0000 
 0.00000000000000E+0000 
 0.00000000000000E+0000 
 0.00000000000000E+0000 
 0.00000000000000E+0000 
 0.00000000000000E+0000 
 0.00000000000000E+0000 
 0.00000000000000E+0000 
 0.00000000000000E+0000 
 0.00000000000000E+0000 
 0.00000000000000E+0000 
 0.00000000000000E+0000 
 0.00000000000000E+0000 
 0.00000000000000E+0000 
 0.00000000000000E+0000 
 0.00000000000000E+0000 
 0.00000000000000E+0000 
 0.00000000000000E+0000 
 0.00000000000000E+0000 
 0.00000000000000E+0000 
 0.00000000000000E+0000 
 0.00000000000000E+0000 
 0.00000000000000E+0000 
 0.00000000000000E+0000 
 0.00000000000000E+0000 
 0.00000000000000E+0000 
 0.00000000000000E+0000 
 0.00000000000000E+0000 
 0.00000000000000E+0000 
 0.00000000000000E+0000 
 0.00000000000000E+0000 
 0.00000000000000E+0000 
 0.00000000000000E+0000 
 0.00000000000000E+0000 
 0.00000000000000E+0000 
 0.00000000000000E+0000 
 0.00000000000000E+0000 
 0.00000000000000E+0000 
 0.00000000000000E+0000 
 0.00000000000000E+0000 
 0.00000000000000E+0000 
 0.00000000000000E+0000 
 0.00000000000000E+0000 
 0.00000000000000E+0000 
 0.00000000000000E+0000 
 0.00000000000000E+0000 
 0.00000000000000E+0000 
 0.00000000000000E+0000 
 0.00000000000000E+0000 
 0.00000000000000E+0000 
 0.00000000000000E+0000 
 0.00000000000000E+0000 
 0.00000000000000E+0000 
 0.00000000000000E+0000 
 0.00000000000000E+0000 
 0.00000000000000E+0000 
 0.00000000000000E+0000 
 0.00000000000000E+0000 
 0.00000000000000E+0000 
 0.00000000000000E+0000 
 0.00000000000000E+0000 
 0.00000000000000E+0000 
 0.00000000000000E+0000 
 0.00000000000000E+0000 
 0.00000000000000E+0000 
 0.00000000000000E+0000 
 0.00000000000000E+0000 
 0.00000000000000E+0000 
 0.00000000000000E+0000 
 0.00000000000000E+0000 
 0.00000000000000E+0000 
 0.00000000000000E+0000 
 0.00000000000000E+0000 
 0.00000000000000E+0000 
 0.00000000000000E+0000 
 0.00000000000000E+0000 
 0.00000000000000E+0000 
 0.00000000000000E+0000 
 0.00000000000000E+0000 
 0.00000000000000E+0000 
 0.00000000000000E+0000 
 0.00000000000000E+0000 
 0.00000000000000E+0000 
 0.00000000000000E+0000 
 0.00000000000000E+0000 
 0.00000000000000E+0000 
 0.00000000000000E+0000 
 0.00000000000000E+0000 
 0.00000000000000E+0000 
 0.00000000000000E+0000 
 0.00000000000000E+0000 
 0.00000000000000E+0000 
 0.00000000000000E+0000 
 0.00000000000000E+0000 
 0.00000000000000E+0000 
 0.00000000000000E+0000 
 0.00000000000000E+0000 
 0.00000000000000E+0000 
 0.00000000000000E+0000 
 0.00000000000000E+0000 
 0.00000000000000E+0000 
 0.00000000000000E+0000 
 0.00000000000000E+0000 
 0.00000000000000E+0000 
 0.00000000000000E+0000 
 0.00000000000000E+0000 
 0.00000000000000E+0000 
 0.00000000000000E+0000 
 0.00000000000000E+0000 
 0.00000000000000E+0000 
 0.00000000000000E+0000 
 0.00000000000000E+0000 
 0.00000000000000E+0000 
 0.00000000000000E+0000 
 0.00000000000000E+0000 
 0.00000000000000E+0000 
 0.00000000000000E+0000 
 0.00000000000000E+0000 
 0.00000000000000E+0000 
 0.00000000000000E+0000 
 0.00000000000000E+0000 
 0.00000000000000E+0000 
 0.00000000000000E+0000 
 0.00000000000000E+0000 
 0.00000000000000E+0000 
 0.00000000000000E+0000 
 0.00000000000000E+0000 
 0.00000000000000E+0000 
 0.00000000000000E+0000 
 0.00000000000000E+0000 
 0.00000000000000E+0000 
 0.00000000000000E+0000 
 0.00000000000000E+0000 
 0.00000000000000E+0000 
 0.00000000000000E+0000 
 0.00000000000000E+0000 
 0.00000000000000E+0000 
 0.00000000000000E+0000 
 0.00000000000000E+0000 
 0.00000000000000E+0000 
 0.00000000000000E+0000 
 0.00000000000000E+0000 
 0.00000000000000E+0000 
 0.00000000000000E+0000 
 0.00000000000000E+0000 
 0.00000000000000E+0000 
 0.00000000000000E+0000 
 0.00000000000000E+0000 
 0.00000000000000E+0000 
 0.00000000000000E+0000 
 0.00000000000000E+0000 
 0.00000000000000E+0000 
 0.00000000000000E+0000 
 0.00000000000000E+0000 
 0.00000000000000E+0000 
 0.00000000000000E+0000 
 0.00000000000000E+0000 
 0.00000000000000E+0000 
 0.00000000000000E+0000 
 0.00000000000000E+0000 
 0.00000000000000E+0000 
 0.00000000000000E+0000 
 0.00000000000000E+0000 
 0.00000000000000E+0000 
 0.00000000000000E+0000 
 0.00000000000000E+0000 
 0.00000000000000E+0000 
 0.00000000000000E+0000 
 0.00000000000000E+0000 
 0.00000000000000E+0000 
 0.00000000000000E+0000 
 0.00000000000000E+0000 
 0.00000000000000E+0000 
 0.00000000000000E+0000 
 0.00000000000000E+0000 
 0.00000000000000E+0000 
 0.00000000000000E+0000 
 0.00000000000000E+0000 
 0.00000000000000E+0000 
 0.00000000000000E+0000 
 0.00000000000000E+0000 
 0.00000000000000E+0000 
 0.00000000000000E+0000 
 0.00000000000000E+0000 
 0.00000000000000E+0000 
 0.00000000000000E+0000 
 0.00000000000000E+0000 
 0.00000000000000E+0000 
 0.00000000000000E+0000 
 0.00000000000000E+0000 
 0.00000000000000E+0000 
 0.00000000000000E+0000 
 0.00000000000000E+0000 
 0.00000000000000E+0000 
 0.00000000000000E+0000 
 0.00000000000000E+0000 
 0.00000000000000E+0000 
 0.00000000000000E+0000 
 0.00000000000000E+0000 
 0.00000000000000E+0000 
 0.00000000000000E+0000 
 0.00000000000000E+0000 
 0.00000000000000E+0000 
 0.00000000000000E+0000 
 0.00000000000000E+0000 
 0.00000000000000E+0000 
 0.00000000000000E+0000 
 0.00000000000000E+0000 
 0.00000000000000E+0000 
 0.00000000000000E+0000 
 0.00000000000000E+0000 
 0.00000000000000E+0000 
 0.00000000000000E+0000 
 0.00000000000000E+0000 
 0.00000000000000E+0000 
 0.00000000000000E+0000 
 0.00000000000000E+0000 
 0.00000000000000E+0000 
 0.00000000000000E+0000 
 0.00000000000000E+0000 
 0.00000000000000E+0000 
 0.00000000000000E+0000 
 0.00000000000000E+0000 
 0.00000000000000E+0000 
 0.00000000000000E+0000 
 0.00000000000000E+0000 
 0.00000000000000E+0000 
 0.00000000000000E+0000 
 0.00000000000000E+0000 
 0.00000000000000E+0000 
 0.00000000000000E+0000 
 0.00000000000000E+0000 
 0.00000000000000E+0000 
 0.00000000000000E+0000 
 0.00000000000000E+0000 
 0.00000000000000E+0000 
 0.00000000000000E+0000 
 0.00000000000000E+0000 
 0.00000000000000E+0000 
 0.00000000000000E+0000 
 0.00000000000000E+0000 
 0.00000000000000E+0000 
 0.00000000000000E+0000 
 0.00000000000000E+0000 
 0.00000000000000E+0000 
 0.00000000000000E+0000 
 0.00000000000000E+0000 
 0.00000000000000E+0000 
 0.00000000000000E+0000 
 0.00000000000000E+0000 
 0.00000000000000E+0000 
 0.00000000000000E+0000 
 0.00000000000000E+0000 
 0.00000000000000E+0000 
 0.00000000000000E+0000 
 0.00000000000000E+0000 
 0.00000000000000E+0000 
 0.00000000000000E+0000 
 0.00000000000000E+0000 
 0.00000000000000E+0000 
 0.00000000000000E+0000 
 0.00000000000000E+0000 
 0.00000000000000E+0000 
 0.00000000000000E+0000 
 0.00000000000000E+0000 
 0.00000000000000E+0000 
 0.00000000000000E+0000 
 0.00000000000000E+0000 
 0.00000000000000E+0000 
 0.00000000000000E+0000 
 0.00000000000000E+0000 
 0.00000000000000E+0000 
 0.00000000000000E+0000 
 0.00000000000000E+0000 
 0.00000000000000E+0000 
 0.00000000000000E+0000 
 0.00000000000000E+0000 
 0.00000000000000E+0000 
 0.00000000000000E+0000 
 0.00000000000000E+0000 
 0.00000000000000E+0000 
 0.00000000000000E+0000 
 0.00000000000000E+0000 
 0.00000000000000E+0000 
 0.00000000000000E+0000 
 0.00000000000000E+0000 
 0.00000000000000E+0000 
 0.00000000000000E+0000 
 0.00000000000000E+0000 
 0.00000000000000E+0000 
 0.00000000000000E+0000 
 0.00000000000000E+0000 
 0.00000000000000E+0000 
 0.00000000000000E+0000 
 0.00000000000000E+0000 
 0.00000000000000E+0000 
 0.00000000000000E+0000 
 0.00000000000000E+0000 
 0.00000000000000E+0000 
 0.00000000000000E+0000 
 0.00000000000000E+0000 
 0.00000000000000E+0000 
 0.00000000000000E+0000 
 0.00000000000000E+0000 
 0.00000000000000E+0000 
 0.00000000000000E+0000 
 0.00000000000000E+0000 
 0.00000000000000E+0000 
 0.00000000000000E+0000 
 0.00000000000000E+0000 
 0.00000000000000E+0000 
 0.00000000000000E+0000 
 0.00000000000000E+0000 
 0.00000000000000E+0000 
 0.00000000000000E+0000 
 0.00000000000000E+0000 
 0.00000000000000E+0000 
 0.00000000000000E+0000 
 0.00000000000000E+0000 
 0.00000000000000E+0000 
 0.00000000000000E+0000 
 0.00000000000000E+0000 
 0.00000000000000E+0000 
 0.00000000000000E+0000 
 0.00000000000000E+0000 
 0.00000000000000E+0000 
 0.00000000000000E+0000 
 0.00000000000000E+0000 
 0.00000000000000E+0000 
 0.00000000000000E+0000 
 0.00000000000000E+0000 
 0.00000000000000E+0000 
 0.00000000000000E+0000 
 0.00000000000000E+0000 
 0.00000000000000E+0000 
 0.00000000000000E+0000 
 0.00000000000000E+0000 
 0.00000000000000E+0000 
 0.00000000000000E+0000 
 0.00000000000000E+0000 
 0.00000000000000E+0000 
 0.00000000000000E+0000 
 0.00000000000000E+0000 
 0.00000000000000E+0000 
 0.00000000000000E+0000 
 0.00000000000000E+0000 
 0.00000000000000E+0000 
 0.00000000000000E+0000 
 0.00000000000000E+0000 
 0.00000000000000E+0000 
 0.00000000000000E+0000 
 0.00000000000000E+0000 
 0.00000000000000E+0000 
 0.00000000000000E+0000 
 0.00000000000000E+0000 
 0.00000000000000E+0000 
 0.00000000000000E+0000 
 0.00000000000000E+0000 
 0.00000000000000E+0000 
 0.00000000000000E+0000 
 0.00000000000000E+0000 
 0.00000000000000E+0000 
 0.00000000000000E+0000 
 0.00000000000000E+0000 
 0.00000000000000E+0000 
 0.00000000000000E+0000 
 0.00000000000000E+0000 
 0.00000000000000E+0000 
 0.00000000000000E+0000 
 0.00000000000000E+0000 
 0.00000000000000E+0000 
 0.00000000000000E+0000 
 0.00000000000000E+0000 
 0.00000000000000E+0000 
 0.00000000000000E+0000 
 0.00000000000000E+0000 
 0.00000000000000E+0000 
 0.00000000000000E+0000 
 0.00000000000000E+0000 
 0.00000000000000E+0000 
 0.00000000000000E+0000 
 0.00000000000000E+0000 
 0.00000000000000E+0000 
 0.00000000000000E+0000 
 0.00000000000000E+0000 
 0.00000000000000E+0000 
 0.00000000000000E+0000 
 0.00000000000000E+0000 
 0.00000000000000E+0000 
 0.00000000000000E+0000 
 0.00000000000000E+0000 
 0.00000000000000E+0000 
 0.00000000000000E+0000 
 0.00000000000000E+0000 
 0.00000000000000E+0000 
 0.00000000000000E+0000 
 0.00000000000000E+0000 
 0.00000000000000E+0000 
 0.00000000000000E+0000 
 0.00000000000000E+0000 
 0.00000000000000E+0000 
 0.00000000000000E+0000 
 0.00000000000000E+0000 
 0.00000000000000E+0000 
 0.00000000000000E+0000 
 0.00000000000000E+0000 
 0.00000000000000E+0000 
 0.00000000000000E+0000 
 0.00000000000000E+0000 
 0.00000000000000E+0000 
 0.00000000000000E+0000 
 0.00000000000000E+0000 
 0.00000000000000E+0000 
 0.00000000000000E+0000 
 0.00000000000000E+0000 
 0.00000000000000E+0000 
 0.00000000000000E+0000 
 0.00000000000000E+0000 
 0.00000000000000E+0000 
 0.00000000000000E+0000 
 0.00000000000000E+0000 
 0.00000000000000E+0000 
 0.00000000000000E+0000 
 0.00000000000000E+0000 
 0.00000000000000E+0000 
 0.00000000000000E+0000 
 0.00000000000000E+0000 
 0.00000000000000E+0000 
 0.00000000000000E+0000 
 0.00000000000000E+0000 
 0.00000000000000E+0000 
 0.00000000000000E+0000 
 0.00000000000000E+0000 
 0.00000000000000E+0000 
 0.00000000000000E+0000 
 0.00000000000000E+0000 
 0.00000000000000E+0000 
 0.00000000000000E+0000 
 0.00000000000000E+0000 
 0.00000000000000E+0000 
 0.00000000000000E+0000 
 0.00000000000000E+0000 
 0.00000000000000E+0000 
 0.00000000000000E+0000 
 0.00000000000000E+0000 
 0.00000000000000E+0000 
 0.00000000000000E+0000 
 0.00000000000000E+0000 
 0.00000000000000E+0000 
 0.00000000000000E+0000 
 0.00000000000000E+0000 
 0.00000000000000E+0000 
 0.00000000000000E+0000 
 0.00000000000000E+0000 
 0.00000000000000E+0000 
 0.00000000000000E+0000 
 0.00000000000000E+0000 
 0.00000000000000E+0000 
 0.00000000000000E+0000 
 0.00000000000000E+0000 
 0.00000000000000E+0000 
 0.00000000000000E+0000 
 0.00000000000000E+0000 
 0.00000000000000E+0000 
 0.00000000000000E+0000 
 0.00000000000000E+0000 
 0.00000000000000E+0000 
 0.00000000000000E+0000 
 0.00000000000000E+0000 
 0.00000000000000E+0000 
 0.00000000000000E+0000 
 0.00000000000000E+0000 
 0.00000000000000E+0000 
 0.00000000000000E+0000 
 0.00000000000000E+0000 
 0.00000000000000E+0000 
 0.00000000000000E+0000 
 0.00000000000000E+0000 
 0.00000000000000E+0000 
 0.00000000000000E+0000 
 0.00000000000000E+0000 
 0.00000000000000E+0000 
 0.00000000000000E+0000 
 0.00000000000000E+0000 
 0.00000000000000E+0000 
 0.00000000000000E+0000 
 0.00000000000000E+0000 
 0.00000000000000E+0000 
 0.00000000000000E+0000 
 0.00000000000000E+0000 
 0.00000000000000E+0000 
 0.00000000000000E+0000 
 0.00000000000000E+0000 
 0.00000000000000E+0000 
 0.00000000000000E+0000 
 0.00000000000000E+0000 
 0.00000000000000E+0000 
 0.00000000000000E+0000 
 0.00000000000000E+0000 
 0.00000000000000E+0000 
 0.00000000000000E+0000 
 0.00000000000000E+0000 
 0.00000000000000E+0000 
 0.00000000000000E+0000 
 0.00000000000000E+0000 
 0.00000000000000E+0000 
 0.00000000000000E+0000 
 0.00000000000000E+0000 
 0.00000000000000E+0000 
 0.00000000000000E+0000 
 0.00000000000000E+0000 
 0.00000000000000E+0000 
 0.00000000000000E+0000 
 0.00000000000000E+0000 
 0.00000000000000E+0000 
 0.00000000000000E+0000 
 0.00000000000000E+0000 
 0.00000000000000E+0000 
 0.00000000000000E+0000 
 0.00000000000000E+0000 
 0.00000000000000E+0000 
 0.00000000000000E+0000 
 0.00000000000000E+0000 
 0.00000000000000E+0000 
 0.00000000000000E+0000 
 0.00000000000000E+0000 
 0.00000000000000E+0000 
 0.00000000000000E+0000 
 0.00000000000000E+0000 
 0.00000000000000E+0000 
 0.00000000000000E+0000 
 0.00000000000000E+0000 
 0.00000000000000E+0000 
 0.00000000000000E+0000 
 0.00000000000000E+0000 
 0.00000000000000E+0000 
 0.00000000000000E+0000 
 0.00000000000000E+0000 
 0.00000000000000E+0000 
 0.00000000000000E+0000 
 0.00000000000000E+0000 
 0.00000000000000E+0000 
 0.00000000000000E+0000 
 0.00000000000000E+0000 
 0.00000000000000E+0000 
 0.00000000000000E+0000 
 0.00000000000000E+0000 
 0.00000000000000E+0000 
 0.00000000000000E+0000 
 0.00000000000000E+0000 
 0.00000000000000E+0000 
 0.00000000000000E+0000 
 0.00000000000000E+0000 
 0.00000000000000E+0000 
 0.00000000000000E+0000 
 0.00000000000000E+0000 
 0.00000000000000E+0000 
 0.00000000000000E+0000 
 0.00000000000000E+0000 
 0.00000000000000E+0000 
 0.00000000000000E+0000 
 0.00000000000000E+0000 
 0.00000000000000E+0000 
 0.00000000000000E+0000 
 0.00000000000000E+0000 
 0.00000000000000E+0000 
 0.00000000000000E+0000 
 0.00000000000000E+0000 
 0.00000000000000E+0000 
 0.00000000000000E+0000 
 0.00000000000000E+0000 
 0.00000000000000E+0000 
 0.00000000000000E+0000 
 0.00000000000000E+0000 
 0.00000000000000E+0000 
 0.00000000000000E+0000 
 0.00000000000000E+0000 
 0.00000000000000E+0000 
 0.00000000000000E+0000 
 0.00000000000000E+0000 
 0.00000000000000E+0000 
 0.00000000000000E+0000 
 0.00000000000000E+0000 
 0.00000000000000E+0000 
 0.00000000000000E+0000 
 0.00000000000000E+0000 
 0.00000000000000E+0000 
 0.00000000000000E+0000 
 0.00000000000000E+0000 
 0.00000000000000E+0000 
 0.00000000000000E+0000 
 0.00000000000000E+0000 
 0.00000000000000E+0000 
 0.00000000000000E+0000 
 0.00000000000000E+0000 
 0.00000000000000E+0000 
 0.00000000000000E+0000 
 0.00000000000000E+0000 
 0.00000000000000E+0000 
 0.00000000000000E+0000 
 0.00000000000000E+0000 
 0.00000000000000E+0000 
 0.00000000000000E+0000 
 0.00000000000000E+0000 
 0.00000000000000E+0000 
 0.00000000000000E+0000 
 0.00000000000000E+0000 
 0.00000000000000E+0000 
 0.00000000000000E+0000 
 0.00000000000000E+0000 
 0.00000000000000E+0000 
 0.00000000000000E+0000 
 0.00000000000000E+0000 
 0.00000000000000E+0000 
 0.00000000000000E+0000 
 0.00000000000000E+0000 
 0.00000000000000E+0000 
 0.00000000000000E+0000 
 0.00000000000000E+0000 
 0.00000000000000E+0000 
 0.00000000000000E+0000 
 0.00000000000000E+0000 
 0.00000000000000E+0000 
 0.00000000000000E+0000 
 0.00000000000000E+0000 
 0.00000000000000E+0000 
 0.00000000000000E+0000 
 0.00000000000000E+0000 
 0.00000000000000E+0000 
 0.00000000000000E+0000 
 0.00000000000000E+0000 
 0.00000000000000E+0000 
 0.00000000000000E+0000 
 0.00000000000000E+0000 
 0.00000000000000E+0000 
 0.00000000000000E+0000 
 0.00000000000000E+0000 
 0.00000000000000E+0000 
 0.00000000000000E+0000 
 0.00000000000000E+0000 
 0.00000000000000E+0000 
 0.00000000000000E+0000 
 0.00000000000000E+0000 
 0.00000000000000E+0000 
 0.00000000000000E+0000 
 0.00000000000000E+0000 
 0.00000000000000E+0000 
 0.00000000000000E+0000 
 0.00000000000000E+0000 
 0.00000000000000E+0000 
 0.00000000000000E+0000 
 0.00000000000000E+0000 
 0.00000000000000E+0000 
 0.00000000000000E+0000 
 0.00000000000000E+0000 
 0.00000000000000E+0000 
 0.00000000000000E+0000 
 0.00000000000000E+0000 
 0.00000000000000E+0000 
 0.00000000000000E+0000 
 0.00000000000000E+0000 
 0.00000000000000E+0000 
 0.00000000000000E+0000 
 0.00000000000000E+0000 
 0.00000000000000E+0000 
 0.00000000000000E+0000 
 0.00000000000000E+0000 
 0.00000000000000E+0000 
 0.00000000000000E+0000 
 0.00000000000000E+0000 
 0.00000000000000E+0000 
 0.00000000000000E+0000 
 0.00000000000000E+0000 
 0.00000000000000E+0000 
 0.00000000000000E+0000 
 0.00000000000000E+0000 
 0.00000000000000E+0000 
 0.00000000000000E+0000 
 0.00000000000000E+0000 
 0.00000000000000E+0000 
 0.00000000000000E+0000 
       103        1.                             0
1.5 
1.5 
1.5 
1.5 
1.5 
1.5 
1.5 
1.5 
1.5 
1.5 
1.5 
1.5 
1.5 
1.5 
1.5 
1.5 
1.5 
1.5 
1.5 
1.5 
1.5 
1.5 
1.5 
1.5 
1.5 
1.5 
1.5 
1.5 
1.5 
1.5 
1.5 
1.5 
1.5 
1.5 
1.5 
1.5 
1.5 
1.5 
1.5 
1.5 
1.5 
1.5 
1.5 
1.5 
1.5 
1.5 
1.5 
1.5 
1.5 
1.5 
1.5 
1.5 
1.5 
1.5 
1.5 
1.5 
1.5 
1.5 
1.5 
1.5 
1.5 
1.5 
1.5 
1.5 
1.5 
1.5 
1.5 
1.5 
1.5 
1.5 
1.5 
1.5 
1.5 
1.5 
1.5 
1.5 
1.5 
1.5 
1.5 
1.5 
1.5 
1.5 
1.5 
1.5 
1.5 
1.5 
1.5 
1.5 
1.5 
1.5 
1.5 
1.5 
1.5 
1.5 
1.5 
1.5 
1.5 
1.5 
1.5 
1.5 
1.5 
1.5 
1.5 
1.5 
1.5 
1.5 
1.5 
1.5 
1.5 
1.5 
1.5 
1.5 
1.5 
1.5 
1.5 
1.5 
1.5 
1.5 
1.5 
1.5 
1.5 
1.5 
1.5 
1.5 
1.5 
1.5 
1.5 
1.5 
1.5 
1.5 
1.5 
1.5 
1.5 
1.5 
1.5 
1.5 
1.5 
1.5 
1.5 
1.5 
1.5 
1.5 
1.5 
1.5 
1.5 
1.5 
1.5 
1.5 
1.5 
1.5 
1.5 
1.5 
1.5 
1.5 
1.5 
1.5 
1.5 
1.5 
1.5 
1.5 
1.5 
1.5 
1.5 
1.5 
1.5 
1.5 
1.5 
1.5 
1.5 
1.5 
1.5 
1.5 
1.5 
1.5 
1.5 
1.5 
1.5 
1.5 
1.5 
1.5 
1.5 
1.5 
1.5 
1.5 
1.5 
1.5 
1.5 
1.5 
1.5 
1.5 
1.5 
1.5 
1.5 
1.5 
1.5 
1.5 
1.5 
1.5 
1.5 
1.5 
1.5 
1.5 
1.5 
1.5 
1.5 
1.5 
1.5 
1.5 
1.5 
1.5 
1.5 
1.5 
1.5 
1.5 
1.5 
1.5 
1.5 
1.5 
1.5 
1.5 
1.5 
1.5 
1.5 
1.5 
1.5 
1.5 
1.5 
1.5 
1.5 
1.5 
1.5 
1.5 
1.5 
1.5 
1.5 
1.5 
1.5 
1.5 
1.5 
1.5 
1.5 
1.5 
1.5 
1.5 
1.5 
1.5 
1.5 
1.5 
1.5 
1.5 
1.5 
1.5 
1.5 
1.5 
1.5 
1.5 
1.5 
1.5 
1.5 
1.5 
1.5 
1.5 
1.5 
1.5 
1.5 
1.5 
1.5 
1.5 
1.5 
1.5 
1.5 
1.5 
1.5 
1.5 
1.5 
1.5 
1.5 
1.5 
1.5 
1.5 
1.5 
1.5 
1.5 
1.5 
1.5 
1.5 
1.5 
1.5 
1.5 
1.5 
1.5 
1.5 
1.5 
1.5 
1.5 
1.5 
1.5 
1.5 
1.5 
1.5 
1.5 
1.5 
1.5 
1.5 
1.5 
1.5 
1.5 
1.5 
1.5 
1.5 
1.5 
1.5 
1.5 
1.5 
1.5 
1.5 
1.5 
1.5 
1.5 
1.5 
1.5 
1.5 
1.5 
1.5 
1.5 
1.5 
1.5 
1.5 
1.5 
1.5 
1.5 
1.5 
1.5 
1.5 
1.5 
1.5 
1.5 
1.5 
1.5 
1.5 
1.5 
1.5 
1.5 
1.5 
1.5 
1.5 
1.5 
1.5 
1.5 
1.5 
1.5 
1.5 
1.5 
1.5 
1.5 
1.5 
1.5 
1.5 
1.5 
1.5 
1.5 
1.5 
1.5 
1.5 
1.5 
1.5 
1.5 
1.5 
1.5 
1.5 
1.5 
1.5 
1.5 
1.5 
1.5 
1.5 
1.5 
1.5 
1.5 
1.5 
1.5 
1.5 
1.5 
1.5 
1.5 
1.5 
1.5 
1.5 
1.5 
1.5 
1.5 
1.5 
1.5 
1.5 
1.5 
1.5 
1.5 
1.5 
1.5 
1.5 
1.5 
1.5 
1.5 
1.5 
1.5 
1.5 
1.5 
1.5 
1.5 
1.5 
1.5 
1.5 
1.5 
1.5 
1.5 
1.5 
1.5 
1.5 
1.5 
1.5 
1.5 
1.5 
1.5 
1.5 
1.5 
1.5 
1.5 
1.5 
1.5 
1.5 
1.5 
1.5 
1.5 
1.5 
1.5 
1.5 
1.5 
1.5 
1.5 
1.5 
1.5 
1.5 
1.5 
1.5 
1.5 
1.5 
1.5 
1.5 
1.5 
1.5 
1.5 
1.5 
1.5 
1.5 
1.5 
1.5 
1.5 
1.5 
1.5 
1.5 
1.5 
1.5 
1.5 
1.5 
1.5 
1.5 
1.5 
1.5 
1.5 
1.5 
1.5 
1.5 
1.5 
1.5 
1.5 
1.5 
1.5 
1.5 
1.5 
1.5 
1.5 
1.5 
1.5 
1.5 
1.5 
1.5 
1.5 
1.5 
1.5 
1.5 
1.5 
1.5 
1.5 
1.5 
1.5 
1.5 
1.5 
1.5 
1.5 
1.5 
1.5 
1.5 
1.5 
1.5 
1.5 
1.5 
1.5 
1.5 
1.5 
1.5 
1.5 
1.5 
1.5 
1.5 
1.5 
1.5 
1.5 
1.5 
1.5 
1.5 
1.5 
1.5 
1.5 
1.5 
1.5 
1.5 
1.5 
1.5 
1.5 
1.5 
1.5 
1.5 
1.5 
1.5 
1.5 
1.5 
1.5 
1.5 
1.5 
1.5 
1.5 
1.5 
1.5 
1.5 
1.5 
1.5 
1.5 
1.5 
1.5 
1.5 
1.5 
1.5 
1.5 
1.5 
1.5 
1.5 
1.5 
1.5 
1.5 
1.5 
1.5 
1.5 
1.5 
1.5 
1.5 
1.5 
1.5 
1.5 
1.5 
1.5 
1.5 
1.5 
1.5 
1.5 
1.5 
1.5 
1.5 
1.5 
1.5 
1.5 
1.5 
1.5 
1.5 
1.5 
1.5 
1.5 
1.5 
1.5 
1.5 
1.5 
1.5 
1.5 
1.5 
1.5 
1.5 
1.5 
1.5 
1.5 
1.5 
1.5 
1.5 
1.5 
1.5 
1.5 
1.5 
1.5 
1.5 
1.5 
1.5 
1.5 
1.5 
1.5 
1.5 
1.5 
1.5 
1.5 
1.5 
1.5 
1.5 
1.5 
1.5 
1.5 
1.5 
1.5 
1.5 
1.5 
1.5 
1.5 
1.5 
1.5 
1.5 
1.5 
1.5 
1.5 
1.5 
1.5 
1.5 
1.5 
1.5 
1.5 
1.5 
1.5 
1.5 
1.5 
1.5 
1.5 
1.5 
1.5 
1.5 
1.5 
1.5 
1.5 
1.5 
1.5 
1.5 
1.5 
1.5 
1.5 
1.5 
1.5 
1.5 
1.5 
1.5 
1.5 
1.5 
1.5 
1.5 
1.5 
1.5 
1.5 
1.5 
1.5 
1.5 
1.5 
1.5 
1.5 
1.5 
1.5 
1.5 
1.5 
1.5 
1.5 
1.5 
1.5 
1.5 
1.5 
1.5 
1.5 
1.5 
1.5 
1.5 
1.5 
1.5 
1.5 
1.5 
1.5 
1.5 
1.5 
1.5 
1.5 
1.5 
1.5 
1.5 
1.5 
1.5 
1.5 
1.5 
1.5 
1.5 
1.5 
1.5 
1.5 
1.5 
1.5 
1.5 
1.5 
1.5 
1.5 
1.5 
1.5 
1.5 
1.5 
1.5 
1.5 
1.5 
1.5 
1.5 
1.5 
1.5 
1.5 
1.5 
1.5 
1.5 
1.5 
1.5 
1.5 
1.5 
1.5 
1.5 
1.5 
1.5 
1.5 
1.5 
1.5 
1.5 
1.5 
1.5 
1.5 
1.5 
1.5 
1.5 
1.5 
1.5 
1.5 
1.5 
1.5 
1.5 
1.5 
1.5 
1.5 
1.5 
1.5 
1.5 
1.5 
1.5 
1.5 
1.5 
1.5 
1.5 
1.5 
1.5 
1.5 
1.5 
1.5 
1.5 
1.5 
1.5 
1.5 
1.5 
1.5 
1.5 
1.5 
1.5 
1.5 
1.5 
1.5 
1.5 
1.5 
1.5 
1.5 
1.5 
1.5 
1.5 
1.5 
1.5 
1.5 
1.5 
1.5 
1.5 
1.5 
       103        1.                             0
1.5 
1.5 
1.5 
1.5 
1.5 
1.5 
1.5 
1.5 
1.5 
1.5 
1.5 
1.5 
1.5 
1.5 
1.5 
1.5 
1.5 
1.5 
1.5 
1.5 
1.5 
1.5 
1.5 
1.5 
1.5 
1.5 
1.5 
1.5 
1.5 
1.5 
1.5 
1.5 
1.5 
1.5 
1.5 
1.5 
1.5 
1.5 
1.5 
1.5 
1.5 
1.5 
1.5 
1.5 
1.5 
1.5 
1.5 
1.5 
1.5 
1.5 
1.5 
1.5 
1.5 
1.5 
1.5 
1.5 
1.5 
1.5 
1.5 
1.5 
1.5 
1.5 
1.5 
1.5 
1.5 
1.5 
1.5 
1.5 
1.5 
1.5 
1.5 
1.5 
1.5 
1.5 
1.5 
1.5 
1.5 
1.5 
1.5 
1.5 
1.5 
1.5 
1.5 
1.5 
1.5 
1.5 
1.5 
1.5 
1.5 
1.5 
1.5 
1.5 
1.5 
1.5 
1.5 
1.5 
1.5 
1.5 
1.5 
1.5 
1.5 
1.5 
1.5 
1.5 
1.5 
1.5 
1.5 
1.5 
1.5 
1.5 
1.5 
1.5 
1.5 
1.5 
1.5 
1.5 
1.5 
1.5 
1.5 
1.5 
1.5 
1.5 
1.5 
1.5 
1.5 
1.5 
1.5 
1.5 
1.5 
1.5 
1.5 
1.5 
1.5 
1.5 
1.5 
1.5 
1.5 
1.5 
1.5 
1.5 
1.5 
1.5 
1.5 
1.5 
1.5 
1.5 
1.5 
1.5 
1.5 
1.5 
1.5 
1.5 
1.5 
1.5 
1.5 
1.5 
1.5 
1.5 
1.5 
1.5 
1.5 
1.5 
1.5 
1.5 
1.5 
1.5 
1.5 
1.5 
1.5 
1.5 
1.5 
1.5 
1.5 
1.5 
1.5 
1.5 
1.5 
1.5 
1.5 
1.5 
1.5 
1.5 
1.5 
1.5 
1.5 
1.5 
1.5 
1.5 
1.5 
1.5 
1.5 
1.5 
1.5 
1.5 
1.5 
1.5 
1.5 
1.5 
1.5 
1.5 
1.5 
1.5 
1.5 
1.5 
1.5 
1.5 
1.5 
1.5 
1.5 
1.5 
1.5 
1.5 
1.5 
1.5 
1.5 
1.5 
1.5 
1.5 
1.5 
1.5 
1.5 
1.5 
1.5 
1.5 
1.5 
1.5 
1.5 
1.5 
1.5 
1.5 
1.5 
1.5 
1.5 
1.5 
1.5 
1.5 
1.5 
1.5 
1.5 
1.5 
1.5 
1.5 
1.5 
1.5 
1.5 
1.5 
1.5 
1.5 
1.5 
1.5 
1.5 
1.5 
1.5 
1.5 
1.5 
1.5 
1.5 
1.5 
1.5 
1.5 
1.5 
1.5 
1.5 
1.5 
1.5 
1.5 
1.5 
1.5 
1.5 
1.5 
1.5 
1.5 
1.5 
1.5 
1.5 
1.5 
1.5 
1.5 
1.5 
1.5 
1.5 
1.5 
1.5 
1.5 
1.5 
1.5 
1.5 
1.5 
1.5 
1.5 
1.5 
1.5 
1.5 
1.5 
1.5 
1.5 
1.5 
1.5 
1.5 
1.5 
1.5 
1.5 
1.5 
1.5 
1.5 
1.5 
1.5 
1.5 
1.5 
1.5 
1.5 
1.5 
1.5 
1.5 
1.5 
1.5 
1.5 
1.5 
1.5 
1.5 
1.5 
1.5 
1.5 
1.5 
1.5 
1.5 
1.5 
1.5 
1.5 
1.5 
1.5 
1.5 
1.5 
1.5 
1.5 
1.5 
1.5 
1.5 
1.5 
1.5 
1.5 
1.5 
1.5 
1.5 
1.5 
1.5 
1.5 
1.5 
1.5 
1.5 
1.5 
1.5 
1.5 
1.5 
1.5 
1.5 
1.5 
1.5 
1.5 
1.5 
1.5 
1.5 
1.5 
1.5 
1.5 
1.5 
1.5 
1.5 
1.5 
1.5 
1.5 
1.5 
1.5 
1.5 
1.5 
1.5 
1.5 
1.5 
1.5 
1.5 
1.5 
1.5 
1.5 
1.5 
1.5 
1.5 
1.5 
1.5 
1.5 
1.5 
1.5 
1.5 
1.5 
1.5 
1.5 
1.5 
1.5 
1.5 
1.5 
1.5 
1.5 
1.5 
1.5 
1.5 
1.5 
1.5 
1.5 
1.5 
1.5 
1.5 
1.5 
1.5 
1.5 
1.5 
1.5 
1.5 
1.5 
1.5 
1.5 
1.5 
1.5 
1.5 
1.5 
1.5 
1.5 
1.5 
1.5 
1.5 
1.5 
1.5 
1.5 
1.5 
1.5 
1.5 
1.5 
1.5 
1.5 
1.5 
1.5 
1.5 
1.5 
1.5 
1.5 
1.5 
1.5 
1.5 
1.5 
1.5 
1.5 
1.5 
1.5 
1.5 
1.5 
1.5 
1.5 
1.5 
1.5 
1.5 
1.5 
1.5 
1.5 
1.5 
1.5 
1.5 
1.5 
1.5 
1.5 
1.5 
1.5 
1.5 
1.5 
1.5 
1.5 
1.5 
1.5 
1.5 
1.5 
1.5 
1.5 
1.5 
1.5 
1.5 
1.5 
1.5 
1.5 
1.5 
1.5 
1.5 
1.5 
1.5 
1.5 
1.5 
1.5 
1.5 
1.5 
1.5 
1.5 
1.5 
1.5 
1.5 
1.5 
1.5 
1.5 
1.5 
1.5 
1.5 
1.5 
1.5 
1.5 
1.5 
1.5 
1.5 
1.5 
1.5 
1.5 
1.5 
1.5 
1.5 
1.5 
1.5 
1.5 
1.5 
1.5 
1.5 
1.5 
1.5 
1.5 
1.5 
1.5 
1.5 
1.5 
1.5 
1.5 
1.5 
1.5 
1.5 
1.5 
1.5 
1.5 
1.5 
1.5 
1.5 
1.5 
1.5 
1.5 
1.5 
1.5 
1.5 
1.5 
1.5 
1.5 
1.5 
1.5 
1.5 
1.5 
1.5 
1.5 
1.5 
1.5 
1.5 
1.5 
1.5 
1.5 
1.5 
1.5 
1.5 
1.5 
1.5 
1.5 
1.5 
1.5 
1.5 
1.5 
1.5 
1.5 
1.5 
1.5 
1.5 
1.5 
1.5 
1.5 
1.5 
1.5 
1.5 
1.5 
1.5 
1.5 
1.5 
1.5 
1.5 
1.5 
1.5 
1.5 
1.5 
1.5 
1.5 
1.5 
1.5 
1.5 
1.5 
1.5 
1.5 
1.5 
1.5 
1.5 
1.5 
1.5 
1.5 
1.5 
1.5 
1.5 
1.5 
1.5 
1.5 
1.5 
1.5 
1.5 
1.5 
1.5 
1.5 
1.5 
1.5 
1.5 
1.5 
1.5 
1.5 
1.5 
1.5 
1.5 
1.5 
1.5 
1.5 
1.5 
1.5 
1.5 
1.5 
1.5 
1.5 
1.5 
1.5 
1.5 
1.5 
1.5 
1.5 
1.5 
1.5 
1.5 
1.5 
1.5 
1.5 
1.5 
1.5 
1.5 
1.5 
1.5 
1.5 
1.5 
1.5 
1.5 
1.5 
1.5 
1.5 
1.5 
1.5 
1.5 
1.5 
1.5 
1.5 
1.5 
1.5 
1.5 
1.5 
1.5 
1.5 
1.5 
1.5 
1.5 
1.5 
1.5 
1.5 
1.5 
1.5 
1.5 
1.5 
1.5 
1.5 
1.5 
1.5 
1.5 
1.5 
1.5 
1.5 
1.5 
1.5 
1.5 
1.5 
1.5 
1.5 
1.5 
1.5 
1.5 
1.5 
1.5 
1.5 
1.5 
1.5 
1.5 
1.5 
1.5 
1.5 
1.5 
1.5 
1.5 
1.5 
1.5 
1.5 
1.5 
1.5 
1.5 
1.5 
1.5 
1.5 
1.5 
1.5 
1.5 
1.5 
1.5 
1.5 
1.5 
1.5 
1.5 
1.5 
1.5 
1.5 
1.5 
1.5 
1.5 
1.5 
1.5 
1.5 
1.5 
1.5 
1.5 
1.5 
1.5 
1.5 
1.5 
1.5 
1.5 
1.5 
1.5 
1.5 
1.5 
1.5 
1.5 
1.5 
1.5 
1.5 
1.5 
1.5 
1.5 
1.5 
1.5 
1.5 
1.5 
1.5 
1.5 
1.5 
1.5 
1.5 
1.5 
1.5 
1.5 
1.5 
1.5 
1.5 
1.5 
1.5 
1.5 
1.5 
1.5 
1.5 
1.5 
1.5 
1.5 
1.5 
1.5 
1.5 
1.5 
1.5 
1.5 
1.5 
1.5 
1.5 
1.5 
1.5 
1.5 
1.5 
1.5 
1.5 
       103        1.                             0
1.5 
1.5 
1.5 
1.5 
1.5 
1.5 
1.5 
1.5 
1.5 
1.5 
1.5 
1.5 
1.5 
1.5 
1.5 
1.5 
1.5 
1.5 
1.5 
1.5 
1.5 
1.5 
1.5 
1.5 
1.5 
1.5 
1.5 
1.5 
1.5 
1.5 
1.5 
1.5 
1.5 
1.5 
1.5 
1.5 
1.5 
1.5 
1.5 
1.5 
1.5 
1.5 
1.5 
1.5 
1.5 
1.5 
1.5 
1.5 
1.5 
1.5 
1.5 
1.5 
1.5 
1.5 
1.5 
1.5 
1.5 
1.5 
1.5 
1.5 
1.5 
1.5 
1.5 
1.5 
1.5 
1.5 
1.5 
1.5 
1.5 
1.5 
1.5 
1.5 
1.5 
1.5 
1.5 
1.5 
1.5 
1.5 
1.5 
1.5 
1.5 
1.5 
1.5 
1.5 
1.5 
1.5 
1.5 
1.5 
1.5 
1.5 
1.5 
1.5 
1.5 
1.5 
1.5 
1.5 
1.5 
1.5 
1.5 
1.5 
1.5 
1.5 
1.5 
1.5 
1.5 
1.5 
1.5 
1.5 
1.5 
1.5 
1.5 
1.5 
1.5 
1.5 
1.5 
1.5 
1.5 
1.5 
1.5 
1.5 
1.5 
1.5 
1.5 
1.5 
1.5 
1.5 
1.5 
1.5 
1.5 
1.5 
1.5 
1.5 
1.5 
1.5 
1.5 
1.5 
1.5 
1.5 
1.5 
1.5 
1.5 
1.5 
1.5 
1.5 
1.5 
1.5 
1.5 
1.5 
1.5 
1.5 
1.5 
1.5 
1.5 
1.5 
1.5 
1.5 
1.5 
1.5 
1.5 
1.5 
1.5 
1.5 
1.5 
1.5 
1.5 
1.5 
1.5 
1.5 
1.5 
1.5 
1.5 
1.5 
1.5 
1.5 
1.5 
1.5 
1.5 
1.5 
1.5 
1.5 
1.5 
1.5 
1.5 
1.5 
1.5 
1.5 
1.5 
1.5 
1.5 
1.5 
1.5 
1.5 
1.5 
1.5 
1.5 