# MATLAB writeBTN 25-Jun-2015 12:28:26
# Input file for BTN package used by MT3DMS and SEAWAT
       134       400         1         1         1         1     NLAY NROW NCOL NPER NCOMP MCOMP
UNDFUNDF  kg     TUNIT LUNIT MUNIT
 T T T T T T T T T T     TRNOP(10): (ADV DSP SSM RCT GCG STR XXX XXX XXX XXX
 0 0 0 0 0 0 0 0 0 0 0 0 0 0 0 0 0 0 0 0 0 0 0 0 0 0 0 0 0 0 0 0 0 0 0 0 0 0 0 0
 0 0 0 0 0 0 0 0 0 0 0 0 0 0 0 0 0 0 0 0 0 0 0 0 0 0 0 0 0 0 0 0 0 0 0 0 0 0 0 0
 0 0 0 0 0 0 0 0 0 0 0 0 0 0 0 0 0 0 0 0 0 0 0 0 0 0 0 0 0 0 0 0 0 0 0 0 0 0 0 0
 0 0 0 0 0 0 0 0 0 0 0 0 0 0
         0       500  (1e12.3)                  -1     DELR
         0       400  (1e12.3)                  -1     DELC
         0         3  (1e12.3)                  -1     ZTOP
         0         0  (1e12.3)                  -1     DZ{1}
         0         0  (1e12.3)                  -1     DZ{2}
         0         0  (1e12.3)                  -1     DZ{3}
         0         0  (1e12.3)                  -1     DZ{4}
         0         0  (1e12.3)                  -1     DZ{5}
         0         0  (1e12.3)                  -1     DZ{6}
         0         0  (1e12.3)                  -1     DZ{7}
         0         0  (1e12.3)                  -1     DZ{8}
         0         0  (1e12.3)                  -1     DZ{9}
         0         0  (1e12.3)                  -1     DZ{10}
         0         0  (1e12.3)                  -1     DZ{11}
         0         0  (1e12.3)                  -1     DZ{12}
         0         0  (1e12.3)                  -1     DZ{13}
         0         0  (1e12.3)                  -1     DZ{14}
         0         0  (1e12.3)                  -1     DZ{15}
         0         0  (1e12.3)                  -1     DZ{16}
         0         0  (1e12.3)                  -1     DZ{17}
         0         0  (1e12.3)                  -1     DZ{18}
         0         0  (1e12.3)                  -1     DZ{19}
         0         0  (1e12.3)                  -1     DZ{20}
         0         0  (1e12.3)                  -1     DZ{21}
         0         0  (1e12.3)                  -1     DZ{22}
         0         0  (1e12.3)                  -1     DZ{23}
         0         0  (1e12.3)                  -1     DZ{24}
         0         0  (1e12.3)                  -1     DZ{25}
         0         0  (1e12.3)                  -1     DZ{26}
         0         0  (1e12.3)                  -1     DZ{27}
         0         0  (1e12.3)                  -1     DZ{28}
         0         0  (1e12.3)                  -1     DZ{29}
         0         0  (1e12.3)                  -1     DZ{30}
         0         0  (1e12.3)                  -1     DZ{31}
         0         0  (1e12.3)                  -1     DZ{32}
         0         0  (1e12.3)                  -1     DZ{33}
         0         0  (1e12.3)                  -1     DZ{34}
         0         0  (1e12.3)                  -1     DZ{35}
         0         0  (1e12.3)                  -1     DZ{36}
         0         0  (1e12.3)                  -1     DZ{37}
         0         0  (1e12.3)                  -1     DZ{38}
         0         0  (1e12.3)                  -1     DZ{39}
         0         0  (1e12.3)                  -1     DZ{40}
         0         0  (1e12.3)                  -1     DZ{41}
         0         0  (1e12.3)                  -1     DZ{42}
         0         0  (1e12.3)                  -1     DZ{43}
         0         0  (1e12.3)                  -1     DZ{44}
         0         0  (1e12.3)                  -1     DZ{45}
         0         0  (1e12.3)                  -1     DZ{46}
         0         0  (1e12.3)                  -1     DZ{47}
         0         0  (1e12.3)                  -1     DZ{48}
         0         0  (1e12.3)                  -1     DZ{49}
         0         0  (1e12.3)                  -1     DZ{50}
         0         0  (1e12.3)                  -1     DZ{51}
         0         0  (1e12.3)                  -1     DZ{52}
         0         0  (1e12.3)                  -1     DZ{53}
         0         0  (1e12.3)                  -1     DZ{54}
         0         0  (1e12.3)                  -1     DZ{55}
         0         0  (1e12.3)                  -1     DZ{56}
         0         0  (1e12.3)                  -1     DZ{57}
         0         0  (1e12.3)                  -1     DZ{58}
         0         0  (1e12.3)                  -1     DZ{59}
         0         0  (1e12.3)                  -1     DZ{60}
         0         0  (1e12.3)                  -1     DZ{61}
         0         0  (1e12.3)                  -1     DZ{62}
         0         0  (1e12.3)                  -1     DZ{63}
         0         0  (1e12.3)                  -1     DZ{64}
         0         0  (1e12.3)                  -1     DZ{65}
         0         0  (1e12.3)                  -1     DZ{66}
         0         0  (1e12.3)                  -1     DZ{67}
         0         0  (1e12.3)                  -1     DZ{68}
         0         0  (1e12.3)                  -1     DZ{69}
         0         0  (1e12.3)                  -1     DZ{70}
         0         0  (1e12.3)                  -1     DZ{71}
         0         0  (1e12.3)                  -1     DZ{72}
         0         0  (1e12.3)                  -1     DZ{73}
         0         0  (1e12.3)                  -1     DZ{74}
         0         0  (1e12.3)                  -1     DZ{75}
         0         0  (1e12.3)                  -1     DZ{76}
         0         0  (1e12.3)                  -1     DZ{77}
         0         0  (1e12.3)                  -1     DZ{78}
         0         0  (1e12.3)                  -1     DZ{79}
         0         0  (1e12.3)                  -1     DZ{80}
         0         0  (1e12.3)                  -1     DZ{81}
         0         0  (1e12.3)                  -1     DZ{82}
         0         0  (1e12.3)                  -1     DZ{83}
         0         0  (1e12.3)                  -1     DZ{84}
         0         0  (1e12.3)                  -1     DZ{85}
         0         0  (1e12.3)                  -1     DZ{86}
         0         0  (1e12.3)                  -1     DZ{87}
         0         0  (1e12.3)                  -1     DZ{88}
         0         0  (1e12.3)                  -1     DZ{89}
         0         0  (1e12.3)                  -1     DZ{90}
         0         0  (1e12.3)                  -1     DZ{91}
         0         0  (1e12.3)                  -1     DZ{92}
         0         0  (1e12.3)                  -1     DZ{93}
         0         0  (1e12.3)                  -1     DZ{94}
         0         0  (1e12.3)                  -1     DZ{95}
         0         0  (1e12.3)                  -1     DZ{96}
         0         0  (1e12.3)                  -1     DZ{97}
         0         0  (1e12.3)                  -1     DZ{98}
         0         0  (1e12.3)                  -1     DZ{99}
         0         0  (1e12.3)                  -1     DZ{100}
         0         0  (1e12.3)                  -1     DZ{101}
         0         0  (1e12.3)                  -1     DZ{102}
         0         0  (1e12.3)                  -1     DZ{103}
         0         0  (1e12.3)                  -1     DZ{104}
         0         0  (1e12.3)                  -1     DZ{105}
         0         0  (1e12.3)                  -1     DZ{106}
         0         0  (1e12.3)                  -1     DZ{107}
         0         0  (1e12.3)                  -1     DZ{108}
         0         0  (1e12.3)                  -1     DZ{109}
         0         0  (1e12.3)                  -1     DZ{110}
         0         0  (1e12.3)                  -1     DZ{111}
         0         0  (1e12.3)                  -1     DZ{112}
         0         0  (1e12.3)                  -1     DZ{113}
         0         0  (1e12.3)                  -1     DZ{114}
         0         0  (1e12.3)                  -1     DZ{115}
         0         0  (1e12.3)                  -1     DZ{116}
         0         0  (1e12.3)                  -1     DZ{117}
         0         0  (1e12.3)                  -1     DZ{118}
         0         0  (1e12.3)                  -1     DZ{119}
         0         0  (1e12.3)                  -1     DZ{120}
         0         0  (1e12.3)                  -1     DZ{121}
         0         0  (1e12.3)                  -1     DZ{122}
         0         0  (1e12.3)                  -1     DZ{123}
         0         0  (1e12.3)                  -1     DZ{124}
         0         0  (1e12.3)                  -1     DZ{125}
         0         0  (1e12.3)                  -1     DZ{126}
         0         0  (1e12.3)                  -1     DZ{127}
         0         0  (1e12.3)                  -1     DZ{128}
         0         0  (1e12.3)                  -1     DZ{129}
         0         0  (1e12.3)                  -1     DZ{130}
         0         0  (1e12.3)                  -1     DZ{131}
         0         0  (1e12.3)                  -1     DZ{132}
         0         0  (1e12.3)                  -1     DZ{133}
         0       0.2  (1e12.3)                  -1     PRSITY{1}
         0       0.2  (1e12.3)                  -1     PRSITY{2}
         0       0.2  (1e12.3)                  -1     PRSITY{3}
         0       0.2  (1e12.3)                  -1     PRSITY{4}
         0       0.2  (1e12.3)                  -1     PRSITY{5}
         0       0.2  (1e12.3)                  -1     PRSITY{6}
         0       0.2  (1e12.3)                  -1     PRSITY{7}
         0       0.2  (1e12.3)                  -1     PRSITY{8}
         0       0.2  (1e12.3)                  -1     PRSITY{9}
         0       0.2  (1e12.3)                  -1     PRSITY{10}
         0       0.2  (1e12.3)                  -1     PRSITY{11}
         0       0.2  (1e12.3)                  -1     PRSITY{12}
         0       0.2  (1e12.3)                  -1     PRSITY{13}
         0       0.2  (1e12.3)                  -1     PRSITY{14}
         0       0.2  (1e12.3)                  -1     PRSITY{15}
         0       0.2  (1e12.3)                  -1     PRSITY{16}
         0       0.2  (1e12.3)                  -1     PRSITY{17}
         0       0.2  (1e12.3)                  -1     PRSITY{18}
         0       0.2  (1e12.3)                  -1     PRSITY{19}
         0       0.2  (1e12.3)                  -1     PRSITY{20}
         0       0.2  (1e12.3)                  -1     PRSITY{21}
         0       0.2  (1e12.3)                  -1     PRSITY{22}
         0       0.2  (1e12.3)                  -1     PRSITY{23}
         0       0.2  (1e12.3)                  -1     PRSITY{24}
         0       0.2  (1e12.3)                  -1     PRSITY{25}
         0       0.2  (1e12.3)                  -1     PRSITY{26}
         0       0.2  (1e12.3)                  -1     PRSITY{27}
         0       0.2  (1e12.3)                  -1     PRSITY{28}
         0       0.2  (1e12.3)                  -1     PRSITY{29}
         0       0.2  (1e12.3)                  -1     PRSITY{30}
         0       0.2  (1e12.3)                  -1     PRSITY{31}
         0       0.2  (1e12.3)                  -1     PRSITY{32}
         0       0.2  (1e12.3)                  -1     PRSITY{33}
         0       0.2  (1e12.3)                  -1     PRSITY{34}
         0       0.2  (1e12.3)                  -1     PRSITY{35}
         0       0.2  (1e12.3)                  -1     PRSITY{36}
         0       0.2  (1e12.3)                  -1     PRSITY{37}
         0       0.2  (1e12.3)                  -1     PRSITY{38}
         0       0.2  (1e12.3)                  -1     PRSITY{39}
         0       0.2  (1e12.3)                  -1     PRSITY{40}
         0       0.2  (1e12.3)                  -1     PRSITY{41}
         0       0.2  (1e12.3)                  -1     PRSITY{42}
         0       0.2  (1e12.3)                  -1     PRSITY{43}
         0       0.2  (1e12.3)                  -1     PRSITY{44}
         0       0.2  (1e12.3)                  -1     PRSITY{45}
         0       0.2  (1e12.3)                  -1     PRSITY{46}
         0       0.2  (1e12.3)                  -1     PRSITY{47}
         0       0.2  (1e12.3)                  -1     PRSITY{48}
         0       0.2  (1e12.3)                  -1     PRSITY{49}
         0       0.2  (1e12.3)                  -1     PRSITY{50}
         0       0.2  (1e12.3)                  -1     PRSITY{51}
         0       0.2  (1e12.3)                  -1     PRSITY{52}
         0       0.2  (1e12.3)                  -1     PRSITY{53}
         0       0.2  (1e12.3)                  -1     PRSITY{54}
         0       0.2  (1e12.3)                  -1     PRSITY{55}
         0       0.2  (1e12.3)                  -1     PRSITY{56}
         0       0.2  (1e12.3)                  -1     PRSITY{57}
         0       0.2  (1e12.3)                  -1     PRSITY{58}
         0       0.2  (1e12.3)                  -1     PRSITY{59}
         0       0.2  (1e12.3)                  -1     PRSITY{60}
         0       0.2  (1e12.3)                  -1     PRSITY{61}
         0       0.2  (1e12.3)                  -1     PRSITY{62}
         0       0.2  (1e12.3)                  -1     PRSITY{63}
         0       0.2  (1e12.3)                  -1     PRSITY{64}
         0       0.2  (1e12.3)                  -1     PRSITY{65}
         0       0.2  (1e12.3)                  -1     PRSITY{66}
         0       0.2  (1e12.3)                  -1     PRSITY{67}
         0       0.2  (1e12.3)                  -1     PRSITY{68}
         0       0.2  (1e12.3)                  -1     PRSITY{69}
         0       0.2  (1e12.3)                  -1     PRSITY{70}
         0       0.2  (1e12.3)                  -1     PRSITY{71}
         0       0.2  (1e12.3)                  -1     PRSITY{72}
         0       0.2  (1e12.3)                  -1     PRSITY{73}
         0       0.2  (1e12.3)                  -1     PRSITY{74}
         0       0.2  (1e12.3)                  -1     PRSITY{75}
         0       0.2  (1e12.3)                  -1     PRSITY{76}
         0       0.2  (1e12.3)                  -1     PRSITY{77}
         0       0.2  (1e12.3)                  -1     PRSITY{78}
         0       0.2  (1e12.3)                  -1     PRSITY{79}
         0       0.2  (1e12.3)                  -1     PRSITY{80}
         0       0.2  (1e12.3)                  -1     PRSITY{81}
         0       0.2  (1e12.3)                  -1     PRSITY{82}
         0       0.2  (1e12.3)                  -1     PRSITY{83}
         0       0.2  (1e12.3)                  -1     PRSITY{84}
         0       0.2  (1e12.3)                  -1     PRSITY{85}
         0       0.2  (1e12.3)                  -1     PRSITY{86}
         0       0.2  (1e12.3)                  -1     PRSITY{87}
         0       0.2  (1e12.3)                  -1     PRSITY{88}
         0       0.2  (1e12.3)                  -1     PRSITY{89}
         0       0.2  (1e12.3)                  -1     PRSITY{90}
         0       0.2  (1e12.3)                  -1     PRSITY{91}
         0       0.2  (1e12.3)                  -1     PRSITY{92}
         0       0.2  (1e12.3)                  -1     PRSITY{93}
         0       0.2  (1e12.3)                  -1     PRSITY{94}
         0       0.2  (1e12.3)                  -1     PRSITY{95}
         0       0.2  (1e12.3)                  -1     PRSITY{96}
         0       0.2  (1e12.3)                  -1     PRSITY{97}
         0       0.2  (1e12.3)                  -1     PRSITY{98}
         0       0.2  (1e12.3)                  -1     PRSITY{99}
         0       0.2  (1e12.3)                  -1     PRSITY{100}
         0       0.2  (1e12.3)                  -1     PRSITY{101}
         0       0.2  (1e12.3)                  -1     PRSITY{102}
         0       0.2  (1e12.3)                  -1     PRSITY{103}
         0       0.2  (1e12.3)                  -1     PRSITY{104}
         0       0.2  (1e12.3)                  -1     PRSITY{105}
         0       0.2  (1e12.3)                  -1     PRSITY{106}
         0       0.2  (1e12.3)                  -1     PRSITY{107}
         0       0.2  (1e12.3)                  -1     PRSITY{108}
         0       0.2  (1e12.3)                  -1     PRSITY{109}
         0       0.2  (1e12.3)                  -1     PRSITY{110}
         0       0.2  (1e12.3)                  -1     PRSITY{111}
         0       0.2  (1e12.3)                  -1     PRSITY{112}
         0       0.2  (1e12.3)                  -1     PRSITY{113}
         0       0.2  (1e12.3)                  -1     PRSITY{114}
         0       0.2  (1e12.3)                  -1     PRSITY{115}
         0       0.2  (1e12.3)                  -1     PRSITY{116}
         0       0.2  (1e12.3)                  -1     PRSITY{117}
         0       0.2  (1e12.3)                  -1     PRSITY{118}
         0       0.2  (1e12.3)                  -1     PRSITY{119}
         0       0.2  (1e12.3)                  -1     PRSITY{120}
         0       0.2  (1e12.3)                  -1     PRSITY{121}
         0       0.2  (1e12.3)                  -1     PRSITY{122}
         0       0.2  (1e12.3)                  -1     PRSITY{123}
         0       0.2  (1e12.3)                  -1     PRSITY{124}
         0       0.2  (1e12.3)                  -1     PRSITY{125}
         0       0.2  (1e12.3)                  -1     PRSITY{126}
         0       0.2  (1e12.3)                  -1     PRSITY{127}
         0       0.2  (1e12.3)                  -1     PRSITY{128}
         0       0.2  (1e12.3)                  -1     PRSITY{129}
         0       0.2  (1e12.3)                  -1     PRSITY{130}
         0       0.2  (1e12.3)                  -1     PRSITY{131}
         0       0.2  (1e12.3)                  -1     PRSITY{132}
         0       0.2  (1e12.3)                  -1     PRSITY{133}
         0       0.2  (1e12.3)                  -1     PRSITY{134}
         0         1  (1I4)                     -1     ICBUND{1}
         0         1  (1I4)                     -1     ICBUND{2}
         0         1  (1I4)                     -1     ICBUND{3}
         0         1  (1I4)                     -1     ICBUND{4}
         0         1  (1I4)                     -1     ICBUND{5}
         0         1  (1I4)                     -1     ICBUND{6}
         0         1  (1I4)                     -1     ICBUND{7}
         0         1  (1I4)                     -1     ICBUND{8}
         0         1  (1I4)                     -1     ICBUND{9}
         0         1  (1I4)                     -1     ICBUND{10}
         0         1  (1I4)                     -1     ICBUND{11}
         0         1  (1I4)                     -1     ICBUND{12}
         0         1  (1I4)                     -1     ICBUND{13}
         0         1  (1I4)                     -1     ICBUND{14}
         0         1  (1I4)                     -1     ICBUND{15}
         0         1  (1I4)                     -1     ICBUND{16}
         0         1  (1I4)                     -1     ICBUND{17}
         0         1  (1I4)                     -1     ICBUND{18}
         0         1  (1I4)                     -1     ICBUND{19}
         0         1  (1I4)                     -1     ICBUND{20}
         0         1  (1I4)                     -1     ICBUND{21}
         0         1  (1I4)                     -1     ICBUND{22}
         0         1  (1I4)                     -1     ICBUND{23}
         0         1  (1I4)                     -1     ICBUND{24}
         0         1  (1I4)                     -1     ICBUND{25}
         0         1  (1I4)                     -1     ICBUND{26}
         0         1  (1I4)                     -1     ICBUND{27}
         0         1  (1I4)                     -1     ICBUND{28}
         0         1  (1I4)                     -1     ICBUND{29}
         0         1  (1I4)                     -1     ICBUND{30}
         0         1  (1I4)                     -1     ICBUND{31}
         0         1  (1I4)                     -1     ICBUND{32}
         0         1  (1I4)                     -1     ICBUND{33}
         0         1  (1I4)                     -1     ICBUND{34}
         0         1  (1I4)                     -1     ICBUND{35}
         0         1  (1I4)                     -1     ICBUND{36}
         0         1  (1I4)                     -1     ICBUND{37}
         0         1  (1I4)                     -1     ICBUND{38}
         0         1  (1I4)                     -1     ICBUND{39}
         0         1  (1I4)                     -1     ICBUND{40}
         0         1  (1I4)                     -1     ICBUND{41}
         0         1  (1I4)                     -1     ICBUND{42}
         0         1  (1I4)                     -1     ICBUND{43}
         0         1  (1I4)                     -1     ICBUND{44}
         0         1  (1I4)                     -1     ICBUND{45}
         0         1  (1I4)                     -1     ICBUND{46}
         0         1  (1I4)                     -1     ICBUND{47}
         0         1  (1I4)                     -1     ICBUND{48}
         0         1  (1I4)                     -1     ICBUND{49}
         0         1  (1I4)                     -1     ICBUND{50}
         0         1  (1I4)                     -1     ICBUND{51}
         0         1  (1I4)                     -1     ICBUND{52}
         0         1  (1I4)                     -1     ICBUND{53}
         0         1  (1I4)                     -1     ICBUND{54}
         0         1  (1I4)                     -1     ICBUND{55}
         0         1  (1I4)                     -1     ICBUND{56}
         0         1  (1I4)                     -1     ICBUND{57}
         0         1  (1I4)                     -1     ICBUND{58}
         0         1  (1I4)                     -1     ICBUND{59}
         0         1  (1I4)                     -1     ICBUND{60}
         0         1  (1I4)                     -1     ICBUND{61}
         0         1  (1I4)                     -1     ICBUND{62}
         0         1  (1I4)                     -1     ICBUND{63}
         0         1  (1I4)                     -1     ICBUND{64}
         0         1  (1I4)                     -1     ICBUND{65}
         0         1  (1I4)                     -1     ICBUND{66}
         0         1  (1I4)                     -1     ICBUND{67}
         0         1  (1I4)                     -1     ICBUND{68}
         0         1  (1I4)                     -1     ICBUND{69}
         0         1  (1I4)                     -1     ICBUND{70}
         0         1  (1I4)                     -1     ICBUND{71}
         0         1  (1I4)                     -1     ICBUND{72}
         0         1  (1I4)                     -1     ICBUND{73}
         0         1  (1I4)                     -1     ICBUND{74}
         0         1  (1I4)                     -1     ICBUND{75}
         0         1  (1I4)                     -1     ICBUND{76}
         0         1  (1I4)                     -1     ICBUND{77}
         0         1  (1I4)                     -1     ICBUND{78}
         0         1  (1I4)                     -1     ICBUND{79}
         0         1  (1I4)                     -1     ICBUND{80}
         0         1  (1I4)                     -1     ICBUND{81}
         0         1  (1I4)                     -1     ICBUND{82}
         0         1  (1I4)                     -1     ICBUND{83}
         0         1  (1I4)                     -1     ICBUND{84}
         0         1  (1I4)                     -1     ICBUND{85}
         0         1  (1I4)                     -1     ICBUND{86}
         0         1  (1I4)                     -1     ICBUND{87}
         0         1  (1I4)                     -1     ICBUND{88}
         0         1  (1I4)                     -1     ICBUND{89}
         0         1  (1I4)                     -1     ICBUND{90}
         0         1  (1I4)                     -1     ICBUND{91}
         0         1  (1I4)                     -1     ICBUND{92}
         0         1  (1I4)                     -1     ICBUND{93}
         0         1  (1I4)                     -1     ICBUND{94}
         0         1  (1I4)                     -1     ICBUND{95}
         0         1  (1I4)                     -1     ICBUND{96}
         0         1  (1I4)                     -1     ICBUND{97}
         0         1  (1I4)                     -1     ICBUND{98}
         0         1  (1I4)                     -1     ICBUND{99}
         0         1  (1I4)                     -1     ICBUND{100}
         0         1  (1I4)                     -1     ICBUND{101}
         0         1  (1I4)                     -1     ICBUND{102}
         0         1  (1I4)                     -1     ICBUND{103}
         0         1  (1I4)                     -1     ICBUND{104}
         0         1  (1I4)                     -1     ICBUND{105}
         0         1  (1I4)                     -1     ICBUND{106}
         0         1  (1I4)                     -1     ICBUND{107}
         0         1  (1I4)                     -1     ICBUND{108}
         0         1  (1I4)                     -1     ICBUND{109}
         0         1  (1I4)                     -1     ICBUND{110}
         0         1  (1I4)                     -1     ICBUND{111}
         0         1  (1I4)                     -1     ICBUND{112}
         0         1  (1I4)                     -1     ICBUND{113}
         0         1  (1I4)                     -1     ICBUND{114}
         0         1  (1I4)                     -1     ICBUND{115}
         0         1  (1I4)                     -1     ICBUND{116}
         0         1  (1I4)                     -1     ICBUND{117}
         0         1  (1I4)                     -1     ICBUND{118}
         0         1  (1I4)                     -1     ICBUND{119}
         0         1  (1I4)                     -1     ICBUND{120}
         0         1  (1I4)                     -1     ICBUND{121}
         0         1  (1I4)                     -1     ICBUND{122}
         0         1  (1I4)                     -1     ICBUND{123}
         0         1  (1I4)                     -1     ICBUND{124}
         0         1  (1I4)                     -1     ICBUND{125}
         0         1  (1I4)                     -1     ICBUND{126}
         0         1  (1I4)                     -1     ICBUND{127}
         0         1  (1I4)                     -1     ICBUND{128}
         0         1  (1I4)                     -1     ICBUND{129}
         0         1  (1I4)                     -1     ICBUND{130}
         0         1  (1I4)                     -1     ICBUND{131}
         0         1  (1I4)                     -1     ICBUND{132}
         0         1  (1I4)                     -1     ICBUND{133}
         0         1  (1I4)                     -1     ICBUND{134}
       100         0  (1e12.3)                   3     STCONC{iComp=1,iLay=1}
   0.000e+00
   0.000e+00
   0.000e+00
   0.000e+00
   0.000e+00
   0.000e+00
   0.000e+00
   0.000e+00
   0.000e+00
   0.000e+00
   0.000e+00
   0.000e+00
   0.000e+00
   0.000e+00
   0.000e+00
   0.000e+00
   0.000e+00
   0.000e+00
   0.000e+00
   0.000e+00
   0.000e+00
   0.000e+00
   0.000e+00
   0.000e+00
   0.000e+00
   0.000e+00
   0.000e+00
   0.000e+00
   0.000e+00
   0.000e+00
   0.000e+00
   0.000e+00
   0.000e+00
   0.000e+00
   0.000e+00
   0.000e+00
   0.000e+00
   0.000e+00
   0.000e+00
   0.000e+00
   0.000e+00
   0.000e+00
   0.000e+00
   0.000e+00
   0.000e+00
   0.000e+00
   0.000e+00
   0.000e+00
   0.000e+00
   0.000e+00
   0.000e+00
   0.000e+00
   0.000e+00
   0.000e+00
   0.000e+00
   0.000e+00
   0.000e+00
   0.000e+00
   0.000e+00
   0.000e+00
   0.000e+00
   0.000e+00
   0.000e+00
   0.000e+00
   0.000e+00
   0.000e+00
   0.000e+00
   0.000e+00
   0.000e+00
   0.000e+00
   0.000e+00
   0.000e+00
   0.000e+00
   0.000e+00
   0.000e+00
   0.000e+00
   0.000e+00
   0.000e+00
   0.000e+00
   0.000e+00
   0.000e+00
   0.000e+00
   0.000e+00
   0.000e+00
   0.000e+00
   0.000e+00
   0.000e+00
   0.000e+00
   0.000e+00
   0.000e+00
   0.000e+00
   0.000e+00
   0.000e+00
   0.000e+00
   0.000e+00
   0.000e+00
   0.000e+00
   0.000e+00
   0.000e+00
   0.000e+00
   3.500e+01
   3.500e+01
   3.500e+01
   3.500e+01
   3.500e+01
   3.500e+01
   3.500e+01
   3.500e+01
   3.500e+01
   3.500e+01
   3.500e+01
   3.500e+01
   3.500e+01
   3.500e+01
   3.500e+01
   3.500e+01
   3.500e+01
   3.500e+01
   3.500e+01
   3.500e+01
   3.500e+01
   3.500e+01
   3.500e+01
   3.500e+01
   3.500e+01
   3.500e+01
   3.500e+01
   3.500e+01
   3.500e+01
   3.500e+01
   3.500e+01
   3.500e+01
   3.500e+01
   3.500e+01
   3.500e+01
   3.500e+01
   3.500e+01
   3.500e+01
   3.500e+01
   3.500e+01
   3.500e+01
   3.500e+01
   3.500e+01
   3.500e+01
   3.500e+01
   3.500e+01
   3.500e+01
   3.500e+01
   3.500e+01
   3.500e+01
   3.500e+01
   3.500e+01
   3.500e+01
   3.500e+01
   3.500e+01
   3.500e+01
   3.500e+01
   3.500e+01
   3.500e+01
   3.500e+01
   3.500e+01
   3.500e+01
   3.500e+01
   3.500e+01
   3.500e+01
   3.500e+01
   3.500e+01
   3.500e+01
   3.500e+01
   3.500e+01
   3.500e+01
   3.500e+01
   3.500e+01
   3.500e+01
   3.500e+01
   3.500e+01
   3.500e+01
   3.500e+01
   3.500e+01
   3.500e+01
   3.500e+01
   3.500e+01
   3.500e+01
   3.500e+01
   3.500e+01
   3.500e+01
   3.500e+01
   3.500e+01
   3.500e+01
   3.500e+01
   3.500e+01
   3.500e+01
   3.500e+01
   3.500e+01
   3.500e+01
   3.500e+01
   3.500e+01
   3.500e+01
   3.500e+01
   3.500e+01
   3.500e+01
   3.500e+01
   3.500e+01
   3.500e+01
   3.500e+01
   3.500e+01
   3.500e+01
   3.500e+01
   3.500e+01
   3.500e+01
   3.500e+01
   3.500e+01
   3.500e+01
   3.500e+01
   3.500e+01
   3.500e+01
   3.500e+01
   3.500e+01
   3.500e+01
   3.500e+01
   3.500e+01
   3.500e+01
   3.500e+01
   3.500e+01
   3.500e+01
   3.500e+01
   3.500e+01
   3.500e+01
   3.500e+01
   3.500e+01
   3.500e+01
   3.500e+01
   3.500e+01
   3.500e+01
   3.500e+01
   3.500e+01
   3.500e+01
   3.500e+01
   3.500e+01
   3.500e+01
   3.500e+01
   3.500e+01